*NODE
1, 0, 0, 0
2, 1, 0, 0
3, 0, 1, 0
4, 0, 0, 1
*ELEMENT, TYPE=C3D4, ELSET=IT
1, 1, 2, 3, 4
*MATERIAL, NAME=M1
*ELASTIC
100, .25
*SOLID SECTION, ELSET=IT, MATERIAL=M1
*STEP
*STATIC
1., 1., .1, 1.
*BOUNDARY
1, 1, 3, 0.
2, 3, 3, 0.
3, 3, 3, 0.
4, 3, 3, .1
*OUTPUT, FIELD, VARIABLE=PRESELECT
*ENDSTEP
